#!/bin/bash

echo Using MESA+GPGPUSIM!
export LD_LIBRARY_PATH=$PWD/Mesa-7.11.2_GPGPU-Sim/lib64
export LD_LIBRARY_PATH=$LD_LIBRARY_PATH:$PWD/android_libs
export LD_LIBRARY_PATH=$LD_LIBRARY_PATH:$CUDAHOME/lib

export GPGPUSIM_MESA_ROOT=$PWD
export MESA_GPGPUSIM_DEBUG="$1"

export PATH=$PATH:$CUDAHOME/bin
export PATH=$PATH:$PWD/cgToolkit/usr/bin
export PATH=$PATH:$PWD/shader_to_ptx/arb_to_ptx
export PATH=$PATH:$PWD/gem5/util/term

export M5_PATH=$PWD/android_images
export CUDAHOME=~/nvcuda/3.2/cuda
export CUDA_INSTALL_PATH=$CUDAHOME
export NVIDIA_CUDA_SDK_LOCATION=$HOME/NVIDIA_GPU_Computing_SDK/3.2/C

alias nvp1_glsl='cgc -oglsl -profile arbvp1'
alias nfp1_glsl='cgc -oglsl -profile arbfp1'

#mesa flags
#export MESA_TNL_PROG=1
#export MESA_TEX_PROG=1
export MESA_GLX_FORCE_ALPHA=1

