#!/bin/bash

echo Using MESA+GPGPUSIM!
export LD_LIBRARY_PATH=$PWD/Mesa-7.11.2_GPGPU-Sim/lib64

export GPGPUSIM_MESA_ROOT=$PWD
export MESA_GPGPUSIM_DEBUG="$1"

export PATH=$PATH:$PWD/cgToolkit/usr/bin
export PATH=$PATH:$PWD/shader_to_ptx/arb_to_ptx

alias nvp1_glsl='cgc -oglsl -profile arbvp1'
alias nfp1_glsl='cgc -oglsl -profile arbfp1'

export MESA_TNL_PROG=1
export MESA_TEX_PROG=1
export MESA_GLX_FORCE_ALPHA=1
export M5_PATH=$PWD/android_images
export LD_LIBRARY_PATH=$LD_LIBRARY_PATH:$PWD/android_libs

#FIX ME
#export CUDAHOME=
